<?xml version="1.0" encoding="UTF-8"?>

<!-- generated on 2025-03-16 15:28:10 by Eclipse SUMO duarouter Version 1.22.0
<duarouterConfiguration xmlns:xsi="http://www.w3.org/2001/XMLSchema-instance" xsi:noNamespaceSchemaLocation="http://sumo.dlr.de/xsd/duarouterConfiguration.xsd">

    <input>
        <net-file value="C:\Users\Januj\Downloads\map.net.xml"/>
        <route-files value="C:\Users\Januj\Downloads\map.trips.xml"/>
    </input>

    <output>
        <output-file value="C:\Users\Januj\Downloads\map.rou.xml"/>
    </output>

    <report>
        <ignore-errors value="true"/>
    </report>

</duarouterConfiguration>
-->

<routes xmlns:xsi="http://www.w3.org/2001/XMLSchema-instance" xsi:noNamespaceSchemaLocation="http://sumo.dlr.de/xsd/routes_file.xsd">
    <vehicle id="0" depart="0.00">
        <route edges="23970123#1 -1190169352#1 -1190169352#0 -23970107#8 23970158#0 23970158#1 1090914675#2 1090914675#3 1090914675#5 1090914675#6 393560242#1 184733116#1 -184733109#1 -184733109#0 -184733111#1"/>
    </vehicle>
    <vehicle id="1" depart="1.00">
        <route edges="-24240030#2 -24240030#1 -24240028#9 -24240028#8 -24240028#6 -24240028#5 -24240028#4 -24240028#3 -24240028#0"/>
    </vehicle>
    <vehicle id="2" depart="2.00">
        <route edges="23970159 -23970123#0 -48742024#0 30851609#1 -1051000492#5 23970157#2"/>
    </vehicle>
    <vehicle id="3" depart="3.00">
        <route edges="30175292#0 23306352#3 30853104#0 30853104#1 -23970118#1"/>
    </vehicle>
    <vehicle id="4" depart="4.00">
        <route edges="-34690573#4 -34690573#3 -34690573#1 -34690573#0 1095119365#1 1095119365#2 -1135514036#3 -1135514036#2 -1135514036#1 -1135514036#0 -1135514036#7 1135514038#0 1135514038#1 1135514038#2 1135514038#3 1135514038#4 30853109#0 30853109#1 393560241#0 393560241#1 393560241#2 23970166#0 23970166#1 23970166#2 -23970164 -23306347#0"/>
    </vehicle>
    <vehicle id="5" depart="5.00">
        <route edges="-23970158#1 23970158#1 1090914675#2 1090914675#3 1090914675#5 1090914675#6 393560242#1 23306352#2"/>
    </vehicle>
    <vehicle id="6" depart="6.00">
        <route edges="-1225609736 -23970170#1 -23970170#0 -23970131#1 23970171 -23970166#0 -23970158#1 -23970135#0 23970161#1 23970161#2 -23970161#2 -23970161#1"/>
    </vehicle>
    <vehicle id="7" depart="7.00">
        <route edges="23970125#1 23970159 -23970123#0 -48742024#0 30851609#1 1051000494#0 1051000494#1 1051000494#2 1051000494#3 1051000494#4 -1135514036#5 -1135514036#4 -1135514036#3 34690559#0 34690559#1 34690559#2 24240028#3 24240028#4 24240028#5 23970108#6"/>
    </vehicle>
    <vehicle id="8" depart="8.00">
        <route edges="-23970158#1 23970135#1 23970160#1 -30853104#5 23970119#0 23970119#1"/>
    </vehicle>
    <vehicle id="9" depart="9.00">
        <route edges="24240034#3 24240038 -34690573#3 -34690573#1 -34690573#0 1095119365#1 1095119365#2 -1135514036#3 -1135514036#2 -1135514036#1 -1135514036#0 -1135514036#7 1135514038#0 1135514038#1 1135514038#2 1135514038#3 23970107#1 23970107#2 23970107#3 23970107#4 23970107#5 -1051000492#3"/>
    </vehicle>
    <vehicle id="10" depart="10.00">
        <route edges="24240034#2 24240034#3 24240038 -34690573#3 -34690573#1 -34690573#0 1095119365#1 1095119365#2 -1135514036#3 -1135514036#2 -1135514036#1 -1135514036#0 -1135514036#7 1135514038#0 1135514038#1 1135514038#2 1135514038#3 1135514038#4 30853109#0 30853109#1 393560241#0 393560241#1 393560241#2 -23970158#1 -23970135#0 23970161#1 23970161#2"/>
    </vehicle>
    <vehicle id="11" depart="11.00">
        <route edges="-24240052#1 24240052#1 -24240030#1 -24240028#9 -24240028#8 -24240028#6 -24240028#5 -24240028#4 -24240028#3 1095119365#0 1095119365#1 1095119365#2 -1135514036#3 -1135514036#2 -1135514036#1 -1135514036#0 -1135514036#7 1135514038#0 1135514038#1 1135514038#2 1135514038#3 23970107#1 23970107#2 23970107#3 23970110 23970157#1 23970157#2 -23970138"/>
    </vehicle>
    <vehicle id="12" depart="12.00">
        <route edges="34690573#4 -34690573#4 -34690573#3 -34690573#1 -28087223#2"/>
    </vehicle>
    <vehicle id="13" depart="13.00">
        <route edges="-23970114 -23970107#2 -23970118#2 30853104#2 30853104#3 -23970121"/>
    </vehicle>
    <vehicle id="14" depart="14.00">
        <route edges="24240052#0 24240052#1 -24240030#1 -24240028#9 -24240028#8 -24240028#6 -24240028#5 -24240028#4 -24240028#3 1095119365#0 1095119365#1 1095119365#2 -1135514036#3 -1135514036#2 -1135514036#1 -1135514036#0 -1135514036#7 1135514038#0 1135514038#1 1135514038#2 1135514038#3 23970107#1 23970107#2 23970107#3 23970110 23970157#1 23970157#2 23970157#3 23970157#4 23970123#0 23970123#1"/>
    </vehicle>
    <vehicle id="15" depart="15.00">
        <route edges="24240034#3 24240038 -34690573#3 -34690573#1 -34690573#0 1095119365#1 1095119365#2 -1135514036#3 34690559#0 34690559#1 34690559#2 24240028#3"/>
    </vehicle>
    <vehicle id="16" depart="16.00">
        <route edges="23306344#1 51352044#0 51352044#1 393560241#0 393560241#1 393560241#2 393560241#3 393560241#4"/>
    </vehicle>
    <vehicle id="17" depart="17.00">
        <route edges="-24240077#1 24240066#6 24240066#7 -24240028#8 -24240028#6 -24240028#5 -24240028#4 -24240028#3 1095119365#0 1095119365#1 1095119365#2 -1135514036#3 -1135514036#2 -1135514036#1 -1135514036#0 -1135514036#7 1135514038#0 1135514038#1 1135514038#2 1135514038#3 23970107#1 23970107#2 23970107#3 23970110"/>
    </vehicle>
    <vehicle id="18" depart="18.00">
        <route edges="24240038 -34690573#3 -34690573#1 -34690573#0 1095119365#1 1095119365#2 -1135514036#3 -1135514036#2 -1135514036#1 -1135514036#0 -1135514036#7 1135514038#0 1135514038#1 1135514038#2 1135514038#3 23970107#1 23970107#2 23970107#3 23970107#4 23970107#5 23970107#6 23970107#7 23970107#8 1190169352#0 -23970125#1 -23970125#0 -23970124#1 23970126"/>
    </vehicle>
    <vehicle id="19" depart="19.00">
        <route edges="24240059 -24240030#6 -24240030#5 -34690573#8 -34690573#7 -34690573#6 -34690573#5 -34690573#4 -34690573#3 -34690573#1 -34690573#0 1095119365#1 1095119365#2 -1135514036#3 -1135514036#2 -1135514036#1 -1135514036#0 -1135514036#7 1135514038#0 1135514038#1 1135514038#2 1135514038#3 1135514038#4 30853109#0 30853109#1 393560241#0 393560241#1 1051000492#1 23970117#3"/>
    </vehicle>
    <vehicle id="20" depart="20.00">
        <route edges="23970138 -23970138 -23970107#6"/>
    </vehicle>
    <vehicle id="21" depart="21.00">
        <route edges="-23970160#0 -1051000492#1 1090914675#5 1090914675#6 393560242#1 23306352#2 23306352#3 23306352#4 23306352#5 23306352#6 23306352#7 -1135514036#7 -1135514036#6 -1135514036#5 -1135514036#4 -1135514036#3 34690559#0 34690559#1 34690559#2 24240028#3 24240028#4 -24240041#1"/>
    </vehicle>
    <vehicle id="22" depart="22.00">
        <route edges="-23970108#6 -24240028#5 -24240028#4"/>
    </vehicle>
    <vehicle id="23" depart="23.00">
        <route edges="-23970116#1 -23970116#0 393560242#1 23306352#2 23306352#3 23306352#4 23306352#5 23306352#6 23306352#7 -1135514036#7 -1135514036#6 -1135514036#5 1051000493#0 1051000493#1 -723381314#1 -723381314#0 -24240037#2 -24240037#1 -24240037#0 34690573#3 -24240038"/>
    </vehicle>
    <vehicle id="24" depart="24.00">
        <route edges="23970123#0 -23970123#0 -48742024#0 30851609#1 1051000494#0 1051000494#1 1051000494#2 1051000494#3 1051000494#4 -1135514036#5 1051000493#0 1051000493#1 1051000493#2 23970108#1 23970108#2 23970108#3 -34690573#5 -34690573#4"/>
    </vehicle>
    <vehicle id="25" depart="25.00">
        <route edges="-24240066#8 -24240028#8 -24240028#6 -24240028#5 -24240028#4 -24240028#3 1095119365#0 1095119365#1 1095119365#2 -1135514036#3 -1135514036#2 -1135514036#1 -1135514036#0 -1135514036#7 1135514038#0 1135514038#1 1135514038#2 1135514038#3 1135514038#4 30853109#0 30853109#1 393560241#0 393560241#1 393560241#2 23970166#0 -23970166#0"/>
    </vehicle>
    <vehicle id="26" depart="26.00">
        <route edges="-24240028#4 -24240028#3 34690559#3"/>
    </vehicle>
    <vehicle id="27" depart="27.00">
        <route edges="23970125#0"/>
    </vehicle>
    <vehicle id="28" depart="28.00">
        <route edges="-23970132#4 23306344#0 23306344#1 51352044#0 51352044#1 23306352#2 23306352#3 23306352#4 23306352#5 23306352#6 23306352#7 -1135514036#7 -1135514036#6 -1135514036#5 -1135514036#4 -1135514036#3 34690559#0 34690559#1 34690559#2 24240028#3"/>
    </vehicle>
    <vehicle id="29" depart="29.00">
        <route edges="-23970132#1 23970148#1 -23970145#0 393560241#2 -23970158#1 -23970158#0 23970107#8 -48742024#2"/>
    </vehicle>
    <vehicle id="30" depart="30.00">
        <route edges="51352043 34690559#2 1095119365#0 1095119365#1 1095119365#2 -1135514036#3 -1135514036#2 -1135514036#1 -1135514036#0 -1135514036#7 1135514038#0 1135514038#1 1135514038#2 1135514038#3 1135514038#4 30853109#0 30853109#1 -51352044#1 -51352044#0 -23306344#1 -23306344#0 23970132#4"/>
    </vehicle>
    <vehicle id="31" depart="31.00">
        <route edges="23306352#6 23306352#7 -1135514036#7 1135514038#0 1135514038#1 1135514038#2 1135514038#3 23970107#1 23970107#2 23970107#3 23970107#4 23970107#5 23970107#6 23970107#7 23970158#0 23970158#1"/>
    </vehicle>
    <vehicle id="32" depart="32.00">
        <route edges="24240041#1 -24240041#1 -24240041#0 24240034#3 24240038"/>
    </vehicle>
    <vehicle id="33" depart="33.00">
        <route edges="-23970161#0 -23970124#2 23970124#2 23970161#0 23970135#0 23970158#1 23970166#0 23970166#1 23970166#2 -23970164 -23306347#0"/>
    </vehicle>
    <vehicle id="34" depart="34.00">
        <route edges="-24240040 28087223#1 28087223#2 34690573#1 34690573#3 34690573#4 34690573#5 23970108#4 -24240077#2 -24240035#4"/>
    </vehicle>
    <vehicle id="35" depart="35.00">
        <route edges="-23970157#3 -23970157#2 1051000492#5 1051000494#0 1051000494#1 1051000494#2 1051000494#3 1051000494#4 -1135514036#5 1051000493#0 1051000493#1 1051000493#2 30853108 -24240030#9 -24240030#7 -24240030#6 -24240030#5 34690573#9 34690573#10"/>
    </vehicle>
    <vehicle id="36" depart="36.00">
        <route edges="24240068 -24240066#4 -24240066#3 -24240066#2"/>
    </vehicle>
    <vehicle id="37" depart="37.00">
        <route edges="23970126 -1190169352#1 -1190169352#0 -23970107#8 23970158#0 23970158#1 1090914675#2 1090914675#3 1051000492#1"/>
    </vehicle>
    <vehicle id="38" depart="38.00">
        <route edges="30851609#1 -1051000492#5 23970157#2 23970157#3 23970157#4 23970123#0 23970123#1 1190169352#3"/>
    </vehicle>
    <vehicle id="39" depart="39.00">
        <route edges="-24240028#4 -24240028#3 24240028#3 24240028#4 24240028#5 24240028#6 24240028#8 24240028#9 24240030#1 -24240030#1"/>
    </vehicle>
    <vehicle id="40" depart="40.00">
        <route edges="23970107#1 -23970118#2 -30853104#1 -30853104#0 23306352#4 23306352#5 23306352#6 23306352#7 -1135514036#7 -1135514036#6 -1135514036#5 1051000493#0 1051000493#1 1051000493#2 23970108#1 23970108#2 -24240034#1 24240035#0 -24240035#0"/>
    </vehicle>
    <vehicle id="41" depart="41.00">
        <route edges="23970110 23970157#1 1051000492#5 1051000494#0 1051000494#1 1051000494#2 1051000494#3 1051000494#4 -1135514036#5 -1135514036#4 -1135514036#3 34690559#0 34690559#1 34690559#2"/>
    </vehicle>
    <vehicle id="42" depart="42.00">
        <route edges="-30776979#2 -30776979#1 -30776979#0 51352044#1 393560241#0 393560241#1 393560241#2 23970166#0 -23970171"/>
    </vehicle>
    <vehicle id="43" depart="43.00">
        <route edges="723381313#1 23970108#2 23970108#3 -34690573#5 -34690573#4 -34690573#3 -34690573#1 -34690573#0 1095119365#1 1095119365#2 -1135514036#3 -1135514036#2 -1135514036#1 -1135514036#0 -1135514036#7 1135514038#0 1135514038#1 1135514038#2 1135514038#3 1135514038#4 30853109#0 23306352#3"/>
    </vehicle>
    <vehicle id="44" depart="44.00">
        <route edges="-23970114 23970107#3 23970107#4 23970107#5 23970107#6 23970107#7 -23970107#7"/>
    </vehicle>
    <vehicle id="45" depart="45.00">
        <route edges="-23970118#1 -23970118#0 -23970117#0 -23970116#0 393560242#1 -51352044#1 -51352044#0 -23970131#5 -23970131#4 -23970131#3 -23970131#2 23970131#2"/>
    </vehicle>
    <vehicle id="46" depart="46.00">
        <route edges="24240030#0 -24240028#9 -24240028#8 -24240028#6 -24240028#5 -24240028#4 -24240028#3 1095119365#0 1095119365#1 1095119365#2 -1135514036#3 -1135514036#2 -1135514036#1 -1135514036#0 -1135514036#7 1135514038#0 1135514038#1 1135514038#2 1135514038#3 23970107#1 23970107#2 23970114 1051000494#2 1051000494#3"/>
    </vehicle>
    <vehicle id="47" depart="47.00">
        <route edges="-23970107#7 -23970107#6 1051000492#4 1051000492#5 1051000494#0 1051000494#1 1051000494#2 1051000494#3 1051000494#4 -1135514036#5 -1135514036#4 -1135514036#3 34690559#0 34690559#1 -51352043"/>
    </vehicle>
    <vehicle id="48" depart="48.00">
        <route edges="723381313#1 23970108#2 23970108#3 -34690573#5 -34690573#4 -34690573#3 -34690573#1 -34690573#0 1095119365#1 1095119365#2 -1135514036#3 -1135514036#2 -1135514036#1 -1135514036#0 -1135514036#7 1135514038#0 1135514038#1 1135514038#2 1135514038#3 23970107#1 23970107#2 23970107#3 23970107#4 23970107#5 23970107#6 23970107#7"/>
    </vehicle>
    <vehicle id="49" depart="49.00">
        <route edges="393560241#1 1090914675#5 1090914675#6 393560242#1 184733116#1 -184733109#1 30776979#2"/>
    </vehicle>
    <vehicle id="50" depart="50.00">
        <route edges="-1051000492#5 -1051000492#4 -1051000492#3 -1051000492#2 -1051000492#1 393560241#2 23970166#0 -23970171 23970171"/>
    </vehicle>
    <vehicle id="51" depart="51.00">
        <route edges="23970132#2 23970132#3 23306344#0 23306344#1 51352044#0 51352044#1 23306352#2 23306352#3 23306352#4 23306352#5 23306352#6 23306352#7 -1135514036#7 -1135514036#6 -1135514036#5 1051000493#0 1051000493#1 1051000493#2 23970108#1 23970108#2 23970108#3 23970108#4"/>
    </vehicle>
    <vehicle id="52" depart="52.00">
        <route edges="-24240028#4 -24240028#3 1095119365#0 1095119365#1 1095119365#2 -1135514036#3 -1135514036#2 -1135514036#1 -1135514036#0 -1135514036#7 1135514038#0 1135514038#1 1135514038#2 1135514038#3 1135514038#4 30853109#0 30853109#1 -51352044#1 -51352044#0 -23306344#1 -23306344#0 23970132#4"/>
    </vehicle>
    <vehicle id="53" depart="53.00">
        <route edges="-23970118#1 -23970118#0 23970117#1 23970117#2 -1051000492#1 1090914675#5 1090914675#6"/>
    </vehicle>
    <vehicle id="54" depart="54.00">
        <route edges="1051000492#4 1051000492#5 1051000494#0 1051000494#1 1051000494#2 1051000494#3 1051000494#4 -1135514036#5 1051000493#0 1051000493#1 1051000493#2 23970108#1 23970108#2 23970108#3 34690573#6"/>
    </vehicle>
    <vehicle id="55" depart="55.00">
        <route edges="24240067 24240066#1 24240065 -24240035#0"/>
    </vehicle>
    <vehicle id="56" depart="56.00">
        <route edges="1095119365#1 1095119365#2 -1135514036#3 -1135514036#2 -1135514036#1 -1135514036#0 -1135514036#7 1135514038#0 1135514038#1 1135514038#2 1135514038#3 23970107#1 23970107#2 23970107#3 23970107#4 23970107#5 23970107#6 23970138 -23970157#2"/>
    </vehicle>
    <vehicle id="57" depart="57.00">
        <route edges="30851609#1 1051000494#0 1051000494#1 -23970114 -23970107#2 -23970118#2 30853104#2"/>
    </vehicle>
    <vehicle id="58" depart="58.00">
        <route edges="-24240035#5 -24240035#4 -24240035#3 -34690573#6 -34690573#5 -34690573#4 -34690573#3 -34690573#1 -34690573#0 1095119365#1 1095119365#2 -1135514036#3 -1135514036#2 -1135514036#1 -1135514036#0 -1135514036#7 1135514038#0 1135514038#1 1135514038#2 1135514038#3 1135514038#4 30853109#0 30853109#1 -51352044#1 -51352044#0 -23306344#1 -23306344#0 23970132#4"/>
    </vehicle>
    <vehicle id="59" depart="59.00">
        <route edges="23970117#1 23970117#2 23970117#3 -23970135#1"/>
    </vehicle>
    <vehicle id="60" depart="60.00">
        <route edges="23970171 -23970166#0 1090914675#2 1090914675#3 1090914675#5 1090914675#6 393560242#1 23306352#2 23306352#3 23306352#4 23306352#5 23306352#6 23306352#7 -1135514036#7 -1135514036#6 -1135514036#5 1051000493#0 1051000493#1 1051000493#2 23970108#1 23970108#2 23970108#3 23970108#4 23970108#5"/>
    </vehicle>
    <vehicle id="61" depart="61.00">
        <route edges="24240028#4 -24240028#4 -24240028#3 1095119365#0 1095119365#1 1095119365#2 -1135514036#3 -1135514036#2 -1135514036#1 -1135514036#0 -1135514036#7 1135514038#0 1135514038#1 1135514038#2 1135514038#3 23970107#1 23970107#2 23970107#3 23970107#4 23970107#5 23970107#6 23970107#7 23970107#8"/>
    </vehicle>
    <vehicle id="62" depart="62.00">
        <route edges="-1051000492#1 1090914675#5 1090914675#6 393560242#1 23306352#2 23306352#3 23306352#4 23306352#5 23306352#6 23306352#7 -1135514036#7 -1135514036#6 -1135514036#5 1051000493#0 1051000493#1 1051000493#2 23970108#1 23970108#2 -24240034#1 -24240034#0 24240066#1 24240066#2 24240066#3 24240066#4 -24240068"/>
    </vehicle>
    <vehicle id="63" depart="63.00">
        <route edges="-1190169352#3 -23970123#1 -23970123#0 -48742024#0 30851609#1 1051000494#0 1051000494#1 1051000494#2 1051000494#3 1051000494#4 -1135514036#5 -1135514036#4 -1135514036#3 34690559#0 34690559#1 34690559#2 34690559#3"/>
    </vehicle>
    <vehicle id="64" depart="64.00">
        <route edges="24240069 24240035#6 24240028#8 24240066#8"/>
    </vehicle>
    <vehicle id="65" depart="65.00">
        <route edges="-24240037#2 -24240037#1 -24240037#0 34690573#3 34690573#4 24240041#1 24240028#5 -23970108#5"/>
    </vehicle>
    <vehicle id="66" depart="66.00">
        <route edges="24240069 -24240035#5 -24240035#4 -24240035#3 34690573#7 34690573#8 34690573#9 34690573#10"/>
    </vehicle>
    <vehicle id="67" depart="67.00">
        <route edges="-23970113 -23970157#0 -23970107#3 -23970107#2 -23970107#1 1135514038#4 30853109#0 30853109#1 -51352044#1 -51352044#0 -23306344#1 184733111#0"/>
    </vehicle>
    <vehicle id="68" depart="68.00">
        <route edges="-23970108#3 -24240034#1 24240035#0"/>
    </vehicle>
    <vehicle id="69" depart="69.00">
        <route edges="24240028#0 1095119365#0 1095119365#1 1095119365#2 -1135514036#3 -1135514036#2 -1135514036#1 -1135514036#0 -1135514036#7 1135514038#0 1135514038#1 1135514038#2 1135514038#3 1135514038#4 30853109#0 30853109#1 393560241#0 393560241#1 393560241#2 23970166#0 23970166#1 -23970129"/>
    </vehicle>
    <vehicle id="70" depart="70.00">
        <route edges="1090914675#0 1090914675#1 1090914675#2 1090914675#3 1051000492#1 1051000492#2 1051000492#3 -23970107#5 -23970107#4 23970110"/>
    </vehicle>
    <vehicle id="71" depart="71.00">
        <route edges="-24240028#4 -24240028#3 1095119365#0 1095119365#1 1095119365#2 -1135514036#3 -1135514036#2 -1135514036#1 -1135514036#0 -1135514036#7 1135514038#0 1135514038#1 1135514038#2 1135514038#3 1135514038#4 30853104#0 30853104#1 30853104#2 30853104#3 30853104#4"/>
    </vehicle>
    <vehicle id="72" depart="72.00">
        <route edges="-34690573#5 -34690573#4 -34690573#3 -34690573#1 -34690573#0 1095119365#1 1095119365#2 -1135514036#3 -1135514036#2 -1135514036#1 -1135514036#0 -1135514036#7 1135514038#0 1135514038#1 1135514038#2 1135514038#3 1135514038#4 30853109#0 30853109#1 393560241#0 393560241#1 393560241#2 23970166#0 23970166#1 23970166#2 -23970166#2"/>
    </vehicle>
    <vehicle id="73" depart="73.00">
        <route edges="23306347#0 23970164 -23970166#2 -23970166#1 -23970166#0 1090914675#2 1090914675#3 1090914675#5 1090914675#6 393560242#1 23306352#2 23306352#3 23306352#4 23306352#5 23306352#6 23306352#7 -1135514036#7 -1135514036#6 -1135514036#5 -1135514036#4 -1135514036#3 34690559#0 34690559#1 34690559#2 24240028#3 24240028#4"/>
    </vehicle>
    <vehicle id="74" depart="74.00">
        <route edges="-23970150 -23970170#1 -23970170#0 -23970144 1090914675#3 1090914675#5 1090914675#6 393560242#1 23306352#2 23306352#3 23306352#4 23306352#5 23306352#6 23306352#7 -1135514036#7 -1135514036#6 -1135514036#5 1051000493#0 1051000493#1 1051000493#2 23970108#1 23970108#2 -24240034#1 24240035#0 -24240065"/>
    </vehicle>
    <vehicle id="75" depart="75.00">
        <route edges="723381313#1 23970108#2 23970108#3 -34690573#5 -34690573#4 -34690573#3 -34690573#1 -34690573#0 1095119365#1 1095119365#2 -1135514036#3 -1135514036#2 -1135514036#1 -1135514036#0 -1135514036#7 1135514038#0 1135514038#1 1135514038#2 1135514038#3 1135514038#4 30853109#0 30853109#1 393560241#0 393560241#1 393560241#2 -23970158#1 -23970135#0 23970135#0"/>
    </vehicle>
    <vehicle id="76" depart="76.00">
        <route edges="-723381313#0 -723381314#0 -24240037#2 -24240037#1 -24240037#0 -34690573#1 -34690573#0 1095119365#1 1095119365#2 -1135514036#3 -1135514036#2 -1135514036#1 -1135514036#0 -1135514036#7 1135514038#0 1135514038#1 1135514038#2 1135514038#3 1135514038#4 23306352#4 23306352#5 23306352#6"/>
    </vehicle>
    <vehicle id="77" depart="77.00">
        <route edges="-23970120#2 -23970122 -30853104#2 -30853104#1 -30853104#0 23306352#4 23306352#5 23306352#6 23306352#7 -1135514036#7 -1135514036#6 -1135514036#5 -1135514036#4 -1135514036#3 34690559#0 34690559#1 34690559#2 -24240028#0"/>
    </vehicle>
    <vehicle id="78" depart="78.00">
        <route edges="-24240050#1 -24240050#0 -24240030#3 -24240030#2 -24240030#1 -24240028#9 -24240028#8 -24240028#6 -24240028#5 -24240028#4 -24240028#3 1095119365#0 1095119365#1 1095119365#2 -1135514036#3 -1135514036#2 -1135514036#1 -1135514036#0 -1135514036#7 1135514038#0 1135514038#1 1135514038#2 1135514038#3 1135514038#4 30853104#0 30853104#1 30853104#2 30853104#3 30853104#4 23970119#0"/>
    </vehicle>
    <vehicle id="79" depart="79.00">
        <route edges="-23970161#0 -23970124#2 23970125#0 23970125#1 23970159 -23970123#0 -48742024#0 30851609#1 1051000494#0 1051000494#1 1051000494#2 1051000494#3 1051000494#4 -1135514036#5 -1135514036#4 -1135514036#3 34690559#0 34690559#1 34690559#2 -24240028#0"/>
    </vehicle>
    <vehicle id="80" depart="80.00">
        <route edges="-23970108#3 24240034#2 24240034#3 24240038 -34690573#3 -34690573#1 -34690573#0 1095119365#1 1095119365#2 -1135514036#3 -1135514036#2 -1135514036#1 -1135514036#0 -1135514036#7 1135514038#0 1135514038#1 1135514038#2 1135514038#3 1135514038#4 30853109#0 30853109#1 -51352044#1 23970148#0 23970132#1 23970131#5"/>
    </vehicle>
    <vehicle id="81" depart="81.00">
        <route edges="-23970161#0 -23970124#2 23970125#0 23970125#1 23970159 -23970123#0 -48742024#0 30851609#1 1051000494#0 1051000494#1 1051000494#2 1051000494#3 1051000494#4 -1135514036#5 -1135514036#4 -1135514036#3 34690559#0 34690559#1 34690559#2 34690559#3"/>
    </vehicle>
    <vehicle id="82" depart="82.00">
        <route edges="24240058#2 -34690573#9 -34690573#8 -34690573#7 -34690573#6 -34690573#5 -34690573#4 -34690573#3 -34690573#1 -34690573#0 1095119365#1 1095119365#2 -1135514036#3 -1135514036#2 -1135514036#1 -1135514036#0 -1135514036#7 1135514038#0 1135514038#1 1135514038#2 1135514038#3 1135514038#4 30853104#0 -23970116#1 -23970116#0"/>
    </vehicle>
    <vehicle id="83" depart="83.00">
        <route edges="-23970162 -23970166#0 1090914675#2 1090914675#3 1090914675#5 1090914675#6 393560242#1 -51352044#1 23970148#0"/>
    </vehicle>
    <vehicle id="84" depart="84.00">
        <route edges="-23970158#0 23970158#0 23970158#1 1090914675#2 1090914675#3 1090914675#5 23970132#0 23970132#1 -23970131#4"/>
    </vehicle>
    <vehicle id="85" depart="85.00">
        <route edges="30853109#0 30853109#1 393560241#0 23970116#0 23970117#0"/>
    </vehicle>
    <vehicle id="86" depart="86.00">
        <route edges="1051000494#3 1051000494#4 -1135514036#5 1051000493#0 1051000493#1 1051000493#2 23970108#1 23970108#2 24240034#2 24240041#0"/>
    </vehicle>
    <vehicle id="87" depart="87.00">
        <route edges="24240034#3 24240038 -34690573#3 -34690573#1 -34690573#0 1095119365#1 1095119365#2 -1135514036#3 -1135514036#2 -1135514036#1 -1135514036#0 -1135514036#7 1135514038#0 1135514038#1 1135514038#2 1135514038#3 23970107#1 23970107#2 23970107#3 23970110 23970157#1 23970157#2 23970157#3 23970157#4 23970123#0 -23970159"/>
    </vehicle>
    <vehicle id="88" depart="88.00">
        <route edges="-23970116#1 -23970116#0 393560241#1 393560241#2 1090914675#2"/>
    </vehicle>
    <vehicle id="89" depart="89.00">
        <route edges="-34690573#5 -34690573#4 -34690573#3 -34690573#1 -34690573#0 1095119365#1 1095119365#2 -1135514036#3 -1135514036#2 -1135514036#1 -1135514036#0 -1135514036#7 1135514038#0 1135514038#1 1135514038#2 1135514038#3 1135514038#4 30853109#0 30853109#1 -51352044#1 -51352044#0 -23970131#5 -23970131#4 -23970131#3 -23970131#2 23970170#0 23970170#1 1225609736"/>
    </vehicle>
    <vehicle id="90" depart="90.00">
        <route edges="23970158#0 23970158#1 1090914675#2 1090914675#3 1090914675#5 23970132#0 23970148#1"/>
    </vehicle>
    <vehicle id="91" depart="91.00">
        <route edges="48742024#2 -23970107#8 -23970107#7 -23970107#6 -1051000492#3 -30853104#5 23970119#0 23970120#0 23970120#1 -23970122"/>
    </vehicle>
    <vehicle id="92" depart="92.00">
        <route edges="-30853104#0 30853109#0 -30175292#0"/>
    </vehicle>
    <vehicle id="93" depart="93.00">
        <route edges="24240059 -24240030#6 -24240030#5 -24240030#4 -24240030#3 -24240030#2"/>
    </vehicle>
    <vehicle id="94" depart="94.00">
        <route edges="-23970145#0 1090914675#5 1090914675#6 393560242#1 23306352#2 23306352#3 23306352#4 23306352#5 23306352#6 23306352#7 -1135514036#7 -1135514036#6 -1135514036#5 -1135514036#4 -1135514036#3 34690559#0 34690559#1 34690559#2 1095119365#0 1095119365#1"/>
    </vehicle>
    <vehicle id="95" depart="95.00">
        <route edges="-34690573#4 -24240038"/>
    </vehicle>
    <vehicle id="96" depart="96.00">
        <route edges="-23970170#1 -23970170#0 -23970144 1090914675#3 1090914675#5 1090914675#6 393560242#1 23306352#2 23306352#3 23306352#4 23306352#5 23306352#6 23306352#7 -1135514036#7 -1135514036#6 -1135514036#5 -1135514036#4 -1135514036#3 34690559#0 34690559#1 34690559#2 34690559#3"/>
    </vehicle>
    <vehicle id="97" depart="97.00">
        <route edges="-723381313#1 -723381313#0 -723381314#0 -24240037#2 -24240037#1 -24240037#0 -34690573#1 -34690573#0 1095119365#1 1095119365#2 -1135514036#3 -1135514036#2 -1135514036#1 -1135514036#0 -1135514036#7 1135514038#0 1135514038#1 1135514038#2 1135514038#3 1135514038#4 30853109#0 30853109#1 184733116#1 -184733109#1 30776979#2"/>
    </vehicle>
    <vehicle id="98" depart="98.00">
        <route edges="23306352#3 23306352#4 23306352#5 23306352#6 23306352#7 -1135514036#7 -1135514036#6 -1135514036#5 1051000493#0 1051000493#1 1051000493#2 23970108#1 23970108#2 23970108#3 -23970108#3"/>
    </vehicle>
    <vehicle id="99" depart="99.00">
        <route edges="723381314#0 723381314#1 1051000493#2 23970108#1 23970108#2 23970108#3 23970108#4 23970108#5 24240028#6 24240028#8 24240066#8"/>
    </vehicle>
</routes>
