<?xml version="1.0" encoding="UTF-8"?>

<!-- generated on 2025-03-16 13:42:02 by Eclipse SUMO netconvert Version 1.22.0
<netconvertConfiguration xmlns:xsi="http://www.w3.org/2001/XMLSchema-instance" xsi:noNamespaceSchemaLocation="http://sumo.dlr.de/xsd/netconvertConfiguration.xsd">

    <input>
        <osm-files value="C:\Users\Januj\Downloads\map.osm"/>
    </input>

    <output>
        <output-file value="C:\Users\Januj\Downloads\map.net.xml"/>
    </output>

    <projection>
        <proj.utm value="true"/>
    </projection>

    <processing>
        <geometry.remove value="true"/>
        <roundabouts.guess value="true"/>
    </processing>

    <tls_building>
        <tls.discard-simple value="true"/>
        <tls.join value="true"/>
        <tls.guess-signals value="true"/>
    </tls_building>

    <ramp_guessing>
        <ramps.guess value="true"/>
    </ramp_guessing>

    <junctions>
        <junctions.join value="true"/>
    </junctions>

</netconvertConfiguration>
-->

<net version="1.20" junctionCornerDetail="5" limitTurnSpeed="5.50" xmlns:xsi="http://www.w3.org/2001/XMLSchema-instance" xsi:noNamespaceSchemaLocation="http://sumo.dlr.de/xsd/net_file.xsd">

    <location netOffset="-413093.52,-1445573.92" convBoundary="0.00,0.00,5773.03,2063.38" origBoundary="80.197875,13.075159,80.272107,13.106897" projParameter="+proj=utm +zone=44 +ellps=WGS84 +datum=WGS84 +units=m +no_defs"/>

    <type id="highway.footway" priority="1" numLanes="1" speed="2.78" allow="pedestrian" oneway="1" width="2.00"/>
    <type id="highway.living_street" priority="2" numLanes="1" speed="2.78" disallow="tram rail_urban rail rail_electric rail_fast ship container cable_car subway aircraft wheelchair scooter drone" oneway="0"/>
    <type id="highway.path" priority="1" numLanes="1" speed="5.56" allow="pedestrian bicycle" oneway="0" width="2.00"/>
    <type id="highway.residential" priority="3" numLanes="1" speed="13.89" disallow="tram rail_urban rail rail_electric rail_fast ship container cable_car subway aircraft wheelchair scooter drone" oneway="0"/>
    <type id="highway.secondary" priority="11" numLanes="1" speed="27.78" disallow="tram rail_urban rail rail_electric rail_fast ship container cable_car subway aircraft wheelchair scooter drone" oneway="0"/>
    <type id="highway.service" priority="1" numLanes="1" speed="5.56" allow="pedestrian delivery bicycle" oneway="0"/>
    <type id="highway.tertiary" priority="10" numLanes="1" speed="22.22" disallow="tram rail_urban rail rail_electric rail_fast ship container cable_car subway aircraft wheelchair scooter drone" oneway="0"/>
    <type id="railway.subway" priority="18" numLanes="1" speed="27.78" allow="subway" oneway="1"/>

    <edge id=":10129668510_0" function="internal">
        <lane id=":10129668510_0_0" index="0" disallow="tram rail_urban rail rail_electric rail_fast ship container cable_car subway aircraft wheelchair scooter drone" speed="22.22" length="9.42" shape="2732.00,1663.87 2732.58,1673.26"/>
    </edge>
    <edge id=":10129668510_1" function="internal">
        <lane id=":10129668510_1_0" index="0" allow="pedestrian delivery bicycle" speed="6.01" length="7.95" shape="2732.00,1663.87 2731.96,1666.67 2731.44,1668.67 2730.45,1669.86 2728.97,1670.26"/>
    </edge>
    <edge id=":10129668510_2" function="internal">
        <lane id=":10129668510_2_0" index="0" allow="pedestrian delivery bicycle" speed="6.27" length="7.87" shape="2728.99,1667.06 2730.42,1667.45 2731.49,1668.62 2732.22,1670.55 2732.58,1673.26"/>
    </edge>
    <edge id=":10129668510_3" function="internal">
        <lane id=":10129668510_3_0" index="0" allow="pedestrian delivery bicycle" speed="3.65" length="4.67" shape="2728.99,1667.06 2730.18,1667.86 2730.58,1668.66 2730.18,1669.46 2728.97,1670.26"/>
    </edge>
    <edge id=":10281746057_0" function="internal">
        <lane id=":10281746057_0_0" index="0" allow="pedestrian delivery bicycle" speed="3.65" length="4.67" shape="2106.70,1115.93 2107.44,1114.69 2108.22,1114.25 2109.03,1114.61 2109.89,1115.77"/>
    </edge>
    <edge id=":10281951536_0" function="internal">
        <lane id=":10281951536_0_0" index="0" allow="pedestrian delivery bicycle" speed="3.65" length="4.67" shape="2934.33,1574.69 2933.49,1575.86 2932.67,1576.24 2931.89,1575.81 2931.13,1574.58"/>
    </edge>
    <edge id=":10584841100_0" function="internal">
        <lane id=":10584841100_0_0" index="0" disallow="tram rail_urban rail rail_electric rail_fast ship container cable_car subway aircraft wheelchair scooter drone" speed="26.70" length="12.03" shape="2144.86,1054.06 2143.98,1050.88 2143.10,1048.29 2141.92,1045.83 2140.14,1043.08"/>
    </edge>
    <edge id=":10584841100_1" function="internal">
        <lane id=":10584841100_1_0" index="0" disallow="tram rail_urban rail rail_electric rail_fast ship container cable_car subway aircraft wheelchair scooter drone" speed="6.56" length="8.25" shape="2153.43,1050.01 2151.21,1050.22 2149.49,1051.05 2148.29,1052.52 2147.60,1054.63"/>
    </edge>
    <edge id=":10584841100_2" function="internal">
        <lane id=":10584841100_2_0" index="0" disallow="tram rail_urban rail rail_electric rail_fast ship container cable_car subway aircraft wheelchair scooter drone" speed="11.41" length="14.72" shape="2154.04,1046.84 2148.83,1046.41 2144.77,1045.64 2141.88,1044.53 2140.14,1043.08"/>
    </edge>
    <edge id=":10584841100_3" function="internal">
        <lane id=":10584841100_3_0" index="0" disallow="tram rail_urban rail rail_electric rail_fast ship container cable_car subway aircraft wheelchair scooter drone" speed="12.39" length="14.59" shape="2142.74,1041.22 2145.23,1045.10 2146.86,1048.63 2147.66,1051.81 2147.60,1054.63"/>
    </edge>
    <edge id=":10584841104_0" function="internal">
        <lane id=":10584841104_0_0" index="0" disallow="tram rail_urban rail rail_electric rail_fast ship container cable_car subway aircraft wheelchair scooter drone" speed="5.81" length="8.78" shape="2147.56,1054.82 2147.53,1057.14 2148.43,1058.65 2150.25,1059.36 2153.00,1059.25"/>
    </edge>
    <edge id=":10584841104_1" function="internal">
        <lane id=":10584841104_1_0" index="0" disallow="tram rail_urban rail rail_electric rail_fast ship container cable_car subway aircraft wheelchair scooter drone" speed="12.60" length="15.63" shape="2147.56,1054.82 2146.41,1059.94 2144.99,1063.97 2143.31,1066.93 2141.36,1068.81"/>
    </edge>
    <edge id=":10584841104_2" function="internal">
        <lane id=":10584841104_2_0" index="0" disallow="tram rail_urban rail rail_electric rail_fast ship container cable_car subway aircraft wheelchair scooter drone" speed="10.09" length="13.73" shape="2139.24,1066.18 2142.21,1062.74 2144.14,1059.61 2145.04,1056.78 2144.91,1054.25"/>
    </edge>
    <edge id=":10584841104_3" function="internal">
        <lane id=":10584841104_3_0" index="0" disallow="tram rail_urban rail rail_electric rail_fast ship container cable_car subway aircraft wheelchair scooter drone" speed="15.31" length="3.37" shape="2139.24,1066.18 2141.99,1064.23"/>
    </edge>
    <edge id=":10584841104_4" function="internal">
        <lane id=":10584841104_4_0" index="0" disallow="tram rail_urban rail rail_electric rail_fast ship container cable_car subway aircraft wheelchair scooter drone" speed="15.31" length="12.57" shape="2141.99,1064.23 2145.22,1063.34 2149.24,1062.90 2154.38,1062.27"/>
    </edge>
    <edge id=":10584852014_0" function="internal">
        <lane id=":10584852014_0_0" index="0" disallow="tram rail_urban rail rail_electric rail_fast ship container cable_car subway aircraft wheelchair scooter drone" speed="11.35" length="11.11" shape="2114.54,1045.76 2112.96,1048.54 2111.96,1050.78 2111.65,1053.12 2112.12,1056.19"/>
    </edge>
    <edge id=":10584852014_1" function="internal">
        <lane id=":10584852014_1_0" index="0" disallow="tram rail_urban rail rail_electric rail_fast ship container cable_car subway aircraft wheelchair scooter drone" speed="9.87" length="2.37" shape="2114.54,1045.76 2113.05,1047.38 2112.90,1047.45"/>
    </edge>
    <edge id=":10584852014_4" function="internal">
        <lane id=":10584852014_4_0" index="0" disallow="tram rail_urban rail rail_electric rail_fast ship container cable_car subway aircraft wheelchair scooter drone" speed="9.87" length="10.26" shape="2112.90,1047.45 2110.63,1048.60 2107.30,1049.43 2103.04,1049.85"/>
    </edge>
    <edge id=":10584852014_2" function="internal">
        <lane id=":10584852014_2_0" index="0" disallow="tram rail_urban rail rail_electric rail_fast ship container cable_car subway aircraft wheelchair scooter drone" speed="6.10" length="7.65" shape="2109.02,1056.56 2108.55,1054.93 2107.42,1053.79 2105.63,1053.17 2103.19,1053.05"/>
    </edge>
    <edge id=":10584852014_3" function="internal">
        <lane id=":10584852014_3_0" index="0" disallow="tram rail_urban rail rail_electric rail_fast ship container cable_car subway aircraft wheelchair scooter drone" speed="14.51" length="12.22" shape="2109.02,1056.56 2108.89,1053.24 2109.15,1050.45 2109.94,1047.78 2111.40,1044.81"/>
    </edge>
    <edge id=":10584852017_0" function="internal">
        <lane id=":10584852017_0_0" index="0" disallow="tram rail_urban rail rail_electric rail_fast ship container cable_car subway aircraft wheelchair scooter drone" speed="10.44" length="11.02" shape="2127.03,1038.05 2124.27,1038.30 2121.72,1039.10 2119.38,1040.47 2117.25,1042.40"/>
    </edge>
    <edge id=":10584852017_1" function="internal">
        <lane id=":10584852017_1_0" index="0" disallow="tram rail_urban rail rail_electric rail_fast ship container cable_car subway aircraft wheelchair scooter drone" speed="5.60" length="7.19" shape="2119.67,1033.27 2120.09,1034.46 2121.25,1035.15 2123.15,1035.33 2125.79,1035.01"/>
    </edge>
    <edge id=":10584852017_2" function="internal">
        <lane id=":10584852017_2_0" index="0" disallow="tram rail_urban rail rail_electric rail_fast ship container cable_car subway aircraft wheelchair scooter drone" speed="10.51" length="9.87" shape="2119.67,1033.27 2119.81,1036.19 2119.72,1038.30 2119.00,1040.16 2117.25,1042.40"/>
    </edge>
    <edge id=":10584852017_3" function="internal">
        <lane id=":10584852017_3_0" index="0" disallow="tram rail_urban rail rail_electric rail_fast ship container cable_car subway aircraft wheelchair scooter drone" speed="13.23" length="11.70" shape="2115.38,1039.70 2117.74,1037.55 2120.01,1036.33 2122.57,1035.62 2125.79,1035.01"/>
    </edge>
    <edge id=":10584852022_0" function="internal">
        <lane id=":10584852022_0_0" index="0" disallow="tram rail_urban rail rail_electric rail_fast ship container cable_car subway aircraft wheelchair scooter drone" speed="12.34" length="10.56" shape="2137.18,1040.60 2134.68,1038.91 2132.62,1038.19 2130.37,1038.05 2127.26,1038.06"/>
    </edge>
    <edge id=":10584852022_1" function="internal">
        <lane id=":10584852022_1_0" index="0" disallow="tram rail_urban rail rail_electric rail_fast ship container cable_car subway aircraft wheelchair scooter drone" speed="9.14" length="2.70" shape="2137.18,1040.60 2135.76,1039.16 2135.43,1038.57"/>
    </edge>
    <edge id=":10584852022_4" function="internal">
        <lane id=":10584852022_4_0" index="0" disallow="tram rail_urban rail rail_electric rail_fast ship container cable_car subway aircraft wheelchair scooter drone" speed="9.14" length="6.19" shape="2135.43,1038.57 2134.73,1037.35 2134.09,1035.19 2133.83,1032.67"/>
    </edge>
    <edge id=":10584852022_2" function="internal">
        <lane id=":10584852022_2_0" index="0" disallow="tram rail_urban rail rail_electric rail_fast ship container cable_car subway aircraft wheelchair scooter drone" speed="5.69" length="6.83" shape="2127.95,1034.86 2130.54,1034.75 2132.39,1034.35 2133.48,1033.66 2133.83,1032.67"/>
    </edge>
    <edge id=":10584852022_3" function="internal">
        <lane id=":10584852022_3_0" index="0" disallow="tram rail_urban rail rail_electric rail_fast ship container cable_car subway aircraft wheelchair scooter drone" speed="12.78" length="11.27" shape="2127.95,1034.86 2131.16,1034.89 2133.65,1035.11 2135.94,1035.91 2138.56,1037.63"/>
    </edge>
    <edge id=":10584852023_0" function="internal">
        <lane id=":10584852023_0_0" index="0" disallow="tram rail_urban rail rail_electric rail_fast ship container cable_car subway aircraft wheelchair scooter drone" speed="27.78" length="1.78" shape="2119.39,1026.19 2119.44,1027.97"/>
    </edge>
    <edge id=":10584852024_0" function="internal">
        <lane id=":10584852024_0_0" index="0" disallow="tram rail_urban rail rail_electric rail_fast ship container cable_car subway aircraft wheelchair scooter drone" speed="27.78" length="1.79" shape="2133.69,1027.43 2133.66,1025.64"/>
    </edge>
    <edge id=":10584852026_0" function="internal">
        <lane id=":10584852026_0_0" index="0" disallow="tram rail_urban rail rail_electric rail_fast ship container cable_car subway aircraft wheelchair scooter drone" speed="27.78" length="5.09" shape="2094.35,1061.24 2099.46,1061.11"/>
        <lane id=":10584852026_0_1" index="1" disallow="tram rail_urban rail rail_electric rail_fast ship container cable_car subway aircraft wheelchair scooter drone" speed="27.78" length="5.09" shape="2094.45,1064.44 2099.52,1064.31"/>
    </edge>
    <edge id=":10584852027_0" function="internal">
        <lane id=":10584852027_0_0" index="0" disallow="tram rail_urban rail rail_electric rail_fast ship container cable_car subway aircraft wheelchair scooter drone" speed="27.78" length="5.04" shape="2099.28,1053.23 2094.24,1053.47"/>
        <lane id=":10584852027_0_1" index="1" disallow="tram rail_urban rail rail_electric rail_fast ship container cable_car subway aircraft wheelchair scooter drone" speed="27.78" length="5.04" shape="2099.12,1050.04 2094.10,1050.27"/>
    </edge>
    <edge id=":10584852029_0" function="internal">
        <lane id=":10584852029_0_0" index="0" disallow="tram rail_urban rail rail_electric rail_fast ship container cable_car subway aircraft wheelchair scooter drone" speed="27.78" length="5.08" shape="2135.41,1089.49 2135.21,1084.41"/>
        <lane id=":10584852029_0_1" index="1" disallow="tram rail_urban rail rail_electric rail_fast ship container cable_car subway aircraft wheelchair scooter drone" speed="27.78" length="5.08" shape="2138.60,1089.35 2138.41,1084.29"/>
    </edge>
    <edge id=":10584852030_0" function="internal">
        <lane id=":10584852030_0_0" index="0" disallow="tram rail_urban rail rail_electric rail_fast ship container cable_car subway aircraft wheelchair scooter drone" speed="27.78" length="5.08" shape="2124.11,1084.71 2124.24,1089.75"/>
        <lane id=":10584852030_0_1" index="1" disallow="tram rail_urban rail rail_electric rail_fast ship container cable_car subway aircraft wheelchair scooter drone" speed="27.78" length="5.08" shape="2120.91,1084.75 2121.04,1089.87"/>
    </edge>
    <edge id=":10584852031_0" function="internal">
        <lane id=":10584852031_0_0" index="0" disallow="tram rail_urban rail rail_electric rail_fast ship container cable_car subway aircraft wheelchair scooter drone" speed="27.78" length="5.33" shape="2156.59,1058.68 2158.21,1058.43 2159.31,1058.29 2160.43,1058.19 2162.06,1058.10"/>
        <lane id=":10584852031_0_1" index="1" disallow="tram rail_urban rail rail_electric rail_fast ship container cable_car subway aircraft wheelchair scooter drone" speed="27.78" length="5.33" shape="2157.10,1061.84 2158.61,1061.61 2159.65,1061.47 2160.70,1061.38 2162.23,1061.30"/>
    </edge>
    <edge id=":10584852032_0" function="internal">
        <lane id=":10584852032_0_0" index="0" disallow="tram rail_urban rail rail_electric rail_fast ship container cable_car subway aircraft wheelchair scooter drone" speed="27.78" length="7.69" shape="2161.74,1050.18 2153.75,1050.03"/>
        <lane id=":10584852032_0_1" index="1" disallow="tram rail_urban rail rail_electric rail_fast ship container cable_car subway aircraft wheelchair scooter drone" speed="27.78" length="7.69" shape="2161.62,1046.98 2154.24,1046.84"/>
    </edge>
    <edge id=":10701010729_0" function="internal">
        <lane id=":10701010729_0_0" index="0" allow="pedestrian bicycle" speed="4.28" length="4.11" width="2.00" shape="1723.31,1310.57 1722.61,1309.66 1721.81,1309.24 1720.91,1309.31 1719.91,1309.88"/>
    </edge>
    <edge id=":10701010729_1" function="internal">
        <lane id=":10701010729_1_0" index="0" allow="pedestrian bicycle" speed="5.56" length="6.97" width="2.00" shape="1723.31,1310.57 1722.30,1308.76 1721.63,1307.52 1721.02,1306.24 1720.18,1304.35"/>
    </edge>
    <edge id=":10701010729_2" function="internal">
        <lane id=":10701010729_2_0" index="0" allow="pedestrian bicycle" speed="2.89" length="2.92" width="2.00" shape="1723.31,1310.57 1723.38,1309.67 1723.69,1309.21 1724.25,1309.18 1725.06,1309.59"/>
    </edge>
    <edge id=":10701010729_3" function="internal">
        <lane id=":10701010729_3_0" index="0" allow="pedestrian bicycle" speed="5.56" length="6.76" width="2.00" shape="1722.02,1303.55 1722.83,1305.39 1723.42,1306.63 1724.07,1307.84 1725.06,1309.59"/>
    </edge>
    <edge id=":10701010729_4" function="internal">
        <lane id=":10701010729_4_0" index="0" allow="pedestrian bicycle" speed="5.56" length="7.24" width="2.00" shape="1722.02,1303.55 1722.46,1305.27 1722.25,1306.89 1721.40,1308.43 1719.91,1309.88"/>
    </edge>
    <edge id=":10701010729_5" function="internal">
        <lane id=":10701010729_5_0" index="0" allow="pedestrian bicycle" speed="2.89" length="2.92" width="2.00" shape="1722.02,1303.55 1721.86,1304.44 1721.50,1304.87 1720.94,1304.84 1720.18,1304.35"/>
    </edge>
    <edge id=":10701010729_6" function="internal">
        <lane id=":10701010729_6_0" index="0" allow="pedestrian bicycle" speed="5.15" length="4.58" width="2.00" shape="1718.69,1308.29 1719.68,1307.35 1720.26,1306.38 1720.43,1305.38 1720.18,1304.35"/>
    </edge>
    <edge id=":10701010729_7" function="internal">
        <lane id=":10701010729_7_0" index="0" allow="pedestrian bicycle" speed="5.56" length="7.69" width="2.00" shape="1718.69,1308.29 1720.56,1307.24 1722.24,1307.10 1723.74,1307.88 1725.06,1309.59"/>
    </edge>
    <edge id=":10701010729_8" function="internal">
        <lane id=":10701010729_8_0" index="0" allow="pedestrian bicycle" speed="2.89" length="2.92" width="2.00" shape="1718.69,1308.29 1719.58,1308.23 1720.09,1308.47 1720.20,1309.02 1719.91,1309.88"/>
    </edge>
    <edge id=":10701010733_0" function="internal">
        <lane id=":10701010733_0_0" index="0" allow="pedestrian bicycle" speed="2.89" length="2.92" width="2.00" shape="1840.51,1366.98 1841.10,1367.67 1841.20,1368.22 1840.82,1368.63 1839.96,1368.90"/>
    </edge>
    <edge id=":10701010740_0" function="internal">
        <lane id=":10701010740_0_0" index="0" allow="pedestrian bicycle" speed="5.56" length="6.94" width="2.00" shape="1656.17,1344.80 1654.81,1343.25 1653.87,1342.16 1653.17,1340.93 1652.55,1339.00"/>
    </edge>
    <edge id=":10701010740_1" function="internal">
        <lane id=":10701010740_1_0" index="0" allow="pedestrian bicycle" speed="2.89" length="0.79" width="2.00" shape="1656.17,1344.80 1656.09,1344.01"/>
    </edge>
    <edge id=":10701010740_4" function="internal">
        <lane id=":10701010740_4_0" index="0" allow="pedestrian bicycle" speed="2.89" length="2.13" width="2.00" shape="1656.09,1344.01 1656.08,1343.91 1656.30,1343.39 1656.85,1343.27 1657.71,1343.53"/>
    </edge>
    <edge id=":10701010740_2" function="internal">
        <lane id=":10701010740_2_0" index="0" allow="pedestrian bicycle" speed="5.56" length="6.07" width="2.00" shape="1654.49,1338.50 1655.04,1340.18 1655.67,1341.23 1656.51,1342.18 1657.71,1343.53"/>
    </edge>
    <edge id=":10701010740_3" function="internal">
        <lane id=":10701010740_3_0" index="0" allow="pedestrian bicycle" speed="2.89" length="0.79" width="2.00" shape="1654.49,1338.50 1654.23,1339.25"/>
    </edge>
    <edge id=":10701010740_5" function="internal">
        <lane id=":10701010740_5_0" index="0" allow="pedestrian bicycle" speed="2.89" length="2.13" width="2.00" shape="1654.23,1339.25 1654.19,1339.35 1653.77,1339.72 1653.23,1339.60 1652.55,1339.00"/>
    </edge>
    <edge id=":10701010741_0" function="internal">
        <lane id=":10701010741_0_0" index="0" allow="pedestrian bicycle" speed="5.56" length="7.34" width="2.00" shape="1630.90,1256.17 1629.02,1249.07"/>
    </edge>
    <edge id=":10701010741_1" function="internal">
        <lane id=":10701010741_1_0" index="0" allow="pedestrian bicycle" speed="5.51" length="8.65" width="2.00" shape="1630.90,1256.17 1630.61,1253.65 1631.25,1251.98 1632.85,1251.18 1635.38,1251.23"/>
    </edge>
    <edge id=":10701010741_2" function="internal">
        <lane id=":10701010741_2_0" index="0" allow="pedestrian bicycle" speed="2.89" length="2.92" width="2.00" shape="1630.90,1256.17 1631.20,1255.31 1631.62,1254.95 1632.17,1255.06 1632.84,1255.66"/>
    </edge>
    <edge id=":10701010741_3" function="internal">
        <lane id=":10701010741_3_0" index="0" allow="pedestrian bicycle" speed="4.06" length="4.30" width="2.00" shape="1635.07,1253.21 1633.80,1253.18 1633.01,1253.58 1632.69,1254.41 1632.84,1255.66"/>
    </edge>
    <edge id=":10701010741_4" function="internal">
        <lane id=":10701010741_4_0" index="0" allow="pedestrian bicycle" speed="5.56" length="7.75" width="2.00" shape="1635.07,1253.21 1632.76,1252.64 1630.98,1251.76 1629.74,1250.57 1629.02,1249.07"/>
    </edge>
    <edge id=":10701010741_5" function="internal">
        <lane id=":10701010741_5_0" index="0" allow="pedestrian bicycle" speed="2.89" length="2.92" width="2.00" shape="1635.07,1253.21 1634.41,1252.59 1634.24,1252.06 1634.56,1251.61 1635.38,1251.23"/>
    </edge>
    <edge id=":10701010741_6" function="internal">
        <lane id=":10701010741_6_0" index="0" allow="pedestrian bicycle" speed="5.56" length="5.46" width="2.00" shape="1630.95,1248.54 1631.44,1249.49 1632.34,1250.25 1633.65,1250.83 1635.38,1251.23"/>
    </edge>
    <edge id=":10701010741_7" function="internal">
        <lane id=":10701010741_7_0" index="0" allow="pedestrian bicycle" speed="5.56" length="7.37" width="2.00" shape="1630.95,1248.54 1632.84,1255.66"/>
    </edge>
    <edge id=":10701010741_8" function="internal">
        <lane id=":10701010741_8_0" index="0" allow="pedestrian bicycle" speed="2.89" length="2.92" width="2.00" shape="1630.95,1248.54 1630.66,1249.40 1630.25,1249.77 1629.70,1249.66 1629.02,1249.07"/>
    </edge>
    <edge id=":10701010745_0" function="internal">
        <lane id=":10701010745_0_0" index="0" disallow="tram rail_urban rail rail_electric rail_fast ship container cable_car subway aircraft wheelchair scooter drone" speed="22.22" length="7.00" shape="1588.60,1245.76 1588.28,1238.76"/>
    </edge>
    <edge id=":10701010745_1" function="internal">
        <lane id=":10701010745_1_0" index="0" allow="pedestrian bicycle" speed="6.39" length="2.39" width="2.00" shape="1588.60,1245.76 1588.91,1243.72 1589.11,1243.46"/>
    </edge>
    <edge id=":10701010745_7" function="internal">
        <lane id=":10701010745_7_0" index="0" allow="pedestrian bicycle" speed="6.39" length="6.48" width="2.00" shape="1589.11,1243.46 1590.04,1242.25 1591.99,1241.35 1594.78,1241.01"/>
    </edge>
    <edge id=":10701010745_2" function="internal">
        <lane id=":10701010745_2_0" index="0" allow="pedestrian bicycle" speed="4.63" length="4.55" width="2.00" shape="1594.81,1243.01 1593.45,1243.19 1592.49,1243.69 1591.94,1244.49 1591.80,1245.61"/>
    </edge>
    <edge id=":10701010745_3" function="internal">
        <lane id=":10701010745_3_0" index="0" allow="pedestrian bicycle" speed="6.35" length="8.75" width="2.00" shape="1594.81,1243.01 1592.03,1242.78 1590.01,1242.00 1588.76,1240.66 1588.28,1238.76"/>
    </edge>
    <edge id=":10701010745_4" function="internal">
        <lane id=":10701010745_4_0" index="0" allow="pedestrian bicycle" speed="2.89" length="2.92" width="2.00" shape="1594.81,1243.01 1594.05,1242.52 1593.79,1242.03 1594.03,1241.52 1594.78,1241.01"/>
    </edge>
    <edge id=":10701010745_5" function="internal">
        <lane id=":10701010745_5_0" index="0" allow="pedestrian bicycle" speed="4.92" length="4.60" width="2.00" shape="1591.47,1238.61 1591.72,1239.68 1592.36,1240.44 1593.37,1240.88 1594.78,1241.01"/>
    </edge>
    <edge id=":10701010745_6" function="internal">
        <lane id=":10701010745_6_0" index="0" disallow="tram rail_urban rail rail_electric rail_fast ship container cable_car subway aircraft wheelchair scooter drone" speed="22.22" length="7.00" shape="1591.47,1238.61 1591.80,1245.61"/>
    </edge>
    <edge id=":10701010746_0" function="internal">
        <lane id=":10701010746_0_0" index="0" allow="pedestrian bicycle" speed="5.27" length="4.81" width="2.00" shape="1627.82,1244.66 1627.35,1243.70 1626.54,1243.03 1625.40,1242.63 1623.92,1242.52"/>
    </edge>
    <edge id=":10701010746_1" function="internal">
        <lane id=":10701010746_1_0" index="0" allow="pedestrian bicycle" speed="5.56" length="7.13" width="2.00" shape="1627.82,1244.66 1625.94,1237.78"/>
    </edge>
    <edge id=":10701010746_2" function="internal">
        <lane id=":10701010746_2_0" index="0" allow="pedestrian bicycle" speed="2.89" length="2.92" width="2.00" shape="1627.82,1244.66 1628.10,1243.81 1628.52,1243.43 1629.06,1243.54 1629.74,1244.13"/>
    </edge>
    <edge id=":10701010746_3" function="internal">
        <lane id=":10701010746_3_0" index="0" allow="pedestrian bicycle" speed="5.56" length="7.13" width="2.00" shape="1627.87,1237.26 1629.74,1244.13"/>
    </edge>
    <edge id=":10701010746_4" function="internal">
        <lane id=":10701010746_4_0" index="0" allow="pedestrian bicycle" speed="5.56" length="8.03" width="2.00" shape="1627.87,1237.26 1628.15,1239.53 1627.59,1241.16 1626.18,1242.16 1623.92,1242.52"/>
    </edge>
    <edge id=":10701010746_5" function="internal">
        <lane id=":10701010746_5_0" index="0" allow="pedestrian bicycle" speed="2.89" length="2.92" width="2.00" shape="1627.87,1237.26 1627.59,1238.11 1627.17,1238.49 1626.62,1238.38 1625.94,1237.78"/>
    </edge>
    <edge id=":10701010746_6" function="internal">
        <lane id=":10701010746_6_0" index="0" allow="pedestrian bicycle" speed="4.18" length="4.17" width="2.00" shape="1623.89,1240.52 1625.06,1240.33 1625.79,1239.81 1626.09,1238.96 1625.94,1237.78"/>
    </edge>
    <edge id=":10701010746_7" function="internal">
        <lane id=":10701010746_7_0" index="0" allow="pedestrian bicycle" speed="5.56" length="7.47" width="2.00" shape="1623.89,1240.52 1626.07,1240.71 1627.78,1241.38 1629.00,1242.52 1629.74,1244.13"/>
    </edge>
    <edge id=":10701010746_8" function="internal">
        <lane id=":10701010746_8_0" index="0" allow="pedestrian bicycle" speed="2.89" length="2.92" width="2.00" shape="1623.89,1240.52 1624.65,1241.01 1624.90,1241.50 1624.66,1242.01 1623.92,1242.52"/>
    </edge>
    <edge id=":11026353627_0" function="internal">
        <lane id=":11026353627_0_0" index="0" disallow="tram rail_urban rail rail_electric rail_fast ship container cable_car subway aircraft wheelchair scooter drone" speed="3.65" length="4.67" shape="2421.81,2063.33 2421.04,2064.55 2420.26,2064.98 2419.45,2064.61 2418.61,2063.43"/>
    </edge>
    <edge id=":11051019723_0" function="internal">
        <lane id=":11051019723_0_0" index="0" allow="pedestrian delivery bicycle" speed="3.65" length="4.67" shape="2429.57,1679.00 2428.33,1678.25 2427.90,1677.47 2428.27,1676.65 2429.43,1675.80"/>
    </edge>
    <edge id=":11059381313_0" function="internal">
        <lane id=":11059381313_0_0" index="0" allow="pedestrian delivery bicycle" speed="3.65" length="4.67" shape="2354.45,1323.15 2355.68,1323.90 2356.12,1324.68 2355.75,1325.49 2354.59,1326.35"/>
    </edge>
    <edge id=":11359617087_0" function="internal">
        <lane id=":11359617087_0_0" index="0" allow="pedestrian bicycle" speed="5.56" length="5.00" width="2.00" shape="1618.08,1242.61 1613.09,1242.70"/>
    </edge>
    <edge id=":11359617087_1" function="internal">
        <lane id=":11359617087_1_0" index="0" allow="pedestrian bicycle" speed="2.89" length="2.39" width="2.00" shape="1618.08,1242.61 1617.33,1242.13 1617.07,1241.63 1617.31,1241.13 1617.61,1240.92"/>
    </edge>
    <edge id=":11359617087_4" function="internal">
        <lane id=":11359617087_4_0" index="0" allow="pedestrian bicycle" speed="2.89" length="0.53" width="2.00" shape="1617.61,1240.92 1618.05,1240.61"/>
    </edge>
    <edge id=":11359617087_2" function="internal">
        <lane id=":11359617087_2_0" index="0" allow="pedestrian bicycle" speed="5.56" length="5.00" width="2.00" shape="1613.05,1240.70 1618.05,1240.61"/>
    </edge>
    <edge id=":11359617087_3" function="internal">
        <lane id=":11359617087_3_0" index="0" allow="pedestrian bicycle" speed="2.89" length="2.39" width="2.00" shape="1613.05,1240.70 1613.81,1241.19 1614.07,1241.68 1613.83,1242.19 1613.52,1242.40"/>
    </edge>
    <edge id=":11359617087_5" function="internal">
        <lane id=":11359617087_5_0" index="0" allow="pedestrian bicycle" speed="2.89" length="0.53" width="2.00" shape="1613.52,1242.40 1613.09,1242.70"/>
    </edge>
    <edge id=":11365879949_0" function="internal">
        <lane id=":11365879949_0_0" index="0" allow="pedestrian delivery bicycle" speed="3.65" length="4.67" shape="2913.12,1384.97 2914.48,1385.46 2915.06,1386.14 2914.86,1387.02 2913.89,1388.08"/>
    </edge>
    <edge id=":11365890142_0" function="internal">