<configuration>
  <input>
    <net-file value="myNetwork.net.xml" />
    <route-files value="myRoutes.rou.xml" />
  </input>
  <time>
    <begin value="0" />
    <end value="1000" />
  </time>
</configuration>